LAMMPS (7 Feb 2024 - Development - patch_7Feb2024-18-gc6a8f1fe58)
units real
atom_style full
bond_style harmonic
angle_style harmonic
dihedral_style opls
improper_style cvff
pair_style lj/cut 11.0
pair_modify mix geometric
special_bonds lj/coul 0 0 0.5
read_data amorphous_builder.data
Reading data file ...
  orthogonal box = (0 0 0) to (159.3309 159.3309 159.3309)
  reading atoms ...
  100 atoms
Finding 1-2 1-3 1-4 neighbors ...
     0 = max # of 1-2 neighbors
     0 = max # of 1-3 neighbors
     0 = max # of 1-4 neighbors
     1 = max # of special neighbors

timestep 1
thermo_modify flush yes
thermo 1000
dump 1 all custom 1000 dump.custom.gz id xu yu zu
dump_modify 1 sort id
min_style fire
minimize 1.0e-6 1.0e-8 1000000 10000000
Generated 0 of 0 mixed pair_coeff terms from geometric mixing rule
  Parameters for fire:
    dmax  delaystep dtgrow dtshrink alpha0 alphashrink tmax tmin   integrator   halfstepback   abcfire
     0.1     20      1.1     0.5     0.25     0.99      10  0.02 eulerimplicit      yes          no
Step          Temp          E_pair         E_mol          TotEng         Press
0   0             -0.056552068    0             -0.056552068   -0.0018572793
Loop time of 0.0106041 on 1 procs for 2793 steps with 100 atoms

Minimization stats:
  Stopping criterion = energy tolerance
  Energy initial, next-to-last, final =
  Force two-norm initial, final = 0.054310003 0.015123637
  Force max component initial, final = 0.032912073 0.0074566413
  Final line search alpha, max atom move = 0 0
  Iterations, force evaluations = 2793 2800

velocity all create 10 1
fix 1a all temp/berendsen 10 10 100
fix 1b all nve
run 100
Generated 0 of 0 mixed pair_coeff terms from geometric mixing rule
Step          Temp          E_pair         E_mol          TotEng         Press
2793   10            -1.415103       0              1.535899       0.033170694
Loop time of 0.000314238 on 1 procs for 100 steps with 100 atoms

unfix 1b
unfix 1a

fix 2a all temp/berendsen 10 300 100
fix 2b all nve
run 5000
Generated 0 of 0 mixed pair_coeff terms from geometric mixing rule
Step          Temp          E_pair         E_mol          TotEng         Press
2893   9.9701029     -1.4030319      0              1.5391474      0.036252606
Loop time of 0.0158354 on 1 procs for 5000 steps with 100 atoms

unfix 2b
unfix 2a

fix 3a all temp/berendsen 300 300 100
fix 3b all nve
run 5000
Generated 0 of 0 mixed pair_coeff terms from geometric mixing rule
Step          Temp          E_pair         E_mol          TotEng         Press
7893   294.4751      -1.1382493      0              85.761411      0.96542568
Loop time of 0.0160337 on 1 procs for 5000 steps with 100 atoms

unfix 3b
unfix 3a

dump_modify 1 every 4000

variable vol equal vol
variable amp equal 0.01*v_vol^(1/3)
variable immed_press python getPress
python getPress input 1 press_vol.data return v_immed_press format sf here "from nemd.pyfunc import getPress"

variable immed_modulus python getModulus
python getModulus input 2 press_vol.data 100 return v_immed_modulus format sif here "from nemd.pyfunc import getModulus"

variable factor python getBdryFactor
python getBdryFactor input 2 1 press_vol.data return v_factor format fsf here "from nemd.pyfunc import getBdryFactor"

variable defm_id loop 0 999 pad
label defm_start
defm_id = 000
shell mkdir defm_000
shell cd defm_000

fix 16a all ave/time 1 10 10 c_thermo_press v_vol file press_vol.data
fix 16b all deform 100 x wiggle 1.593309 1000 y wiggle 1.593309 1000 z wiggle 1.593309 1000
fix 16c all temp/berendsen 300 300 100
fix 16d all nve
run 3000
Generated 0 of 0 mixed pair_coeff terms from geometric mixing rule
Step          Temp          E_pair         E_mol          TotEng         Press          Volume
12893   299.98677     -0.60641337     0              87.919741      0.9920089      4044827.7
Loop time of 0.0183895 on 1 procs for 3000 steps with 100 atoms

unfix 16d
unfix 16c
unfix 16b
unfix 16a

immed_press = 0.995716026755853
immed_modulus = 10
factor = 1
jump SELF defm_break
variable modulus equal 10
variable press equal 0.995716026755853
shell cd ..
variable vol delete
variable amp delete
variable immed_press delete
variable immed_modulus delete
variable factor delete
variable defm_id delete

dump_modify 1 every 1000

fix 39a all temp/berendsen 300 300 100
fix 39b all nve
run 10000
Generated 0 of 0 mixed pair_coeff terms from geometric mixing rule
Step          Temp          E_pair         E_mol          TotEng         Press
15893   300.2852      -0.84196822     0              87.772253      1.0095953
Averages over the last 6 of 12 rows, steps 21000 to 25893:
Temp E_pair E_mol TotEng Press
299.999 -0.545059 0 87.9846 1.01186
Loop time of 0.0304949 on 1 procs for 10000 steps with 100 atoms

unfix 39b
unfix 39a

fix 40a all press/berendsen iso 0.995716026755853 1 1000 modulus 10
fix 40b all temp/berendsen 300 300 100
fix 40c all nve
run 10000
Generated 0 of 0 mixed pair_coeff terms from geometric mixing rule
Step          Temp          E_pair         E_mol          TotEng         Press          Volume
25893   300.01251     -0.49134713     0              88.042403      1.0104579      3978256.9
Averages over the last 6 of 12 rows, steps 31000 to 35893:
Temp E_pair E_mol TotEng Press Volume
300.105 -0.763031 0 87.7981 1.00342 4.01172e+06
Loop time of 0.0443594 on 1 procs for 10000 steps with 100 atoms

unfix 40c
unfix 40b
unfix 40a

fix 41a all press/berendsen iso 1.0 1 1000 modulus 10
fix 41b all temp/berendsen 300 300 100
fix 41c all nve
run 100000
Generated 0 of 0 mixed pair_coeff terms from geometric mixing rule
Step          Temp          E_pair         E_mol          TotEng         Press          Volume
35893   300.06349     -0.86723152     0              87.681562      0.99915982     4014631.4
Averages over the last 51 of 102 rows, steps 86000 to 135893:
Temp E_pair E_mol TotEng Press Volume
299.999 -0.123287 0 88.4065 1.00042 4.04444e+06
Loop time of 0.45778 on 1 procs for 100000 steps with 100 atoms

unfix 41c
unfix 41b
unfix 41a

fix 42a all press/berendsen iso 1.0 1 1000 modulus 10
fix 42b all temp/berendsen 300 300 100
fix 42c all nve
run 10000
Generated 0 of 0 mixed pair_coeff terms from geometric mixing rule
Step          Temp          E_pair         E_mol          TotEng         Press          Volume
135893   300.04117     -0.16872749     0              88.373482      0.99647488     4040139.3
Averages over the last 6 of 12 rows, steps 141000 to 145893:
Temp E_pair E_mol TotEng Press Volume
299.983 -0.191448 0 88.3337 1.00193 4.0439e+06
Loop time of 0.0456377 on 1 procs for 10000 steps with 100 atoms

unfix 42c
unfix 42b
unfix 42a

quit 0
