LAMMPS (22 Aug 2018)
### INITIALIZATION ###
units        real
processors * 1 1

atom_style	 full
pair_style	 lj/class2/coul/cut 10.0 10.0
pair_modify  mix sixthpower
bond_style   morse
#angle_style  class2
angle_style quartic
dihedral_style multi/harmonic
#improper_style class2
read_data	./data.lammps
  orthogonal box = (0 -50 -50) to (123.388 50 50)
  reading atoms ...
  100 atoms
  scanning bonds ...
  scanning angles ...
  scanning dihedrals ...
  reading bonds ...
  100 bonds
  reading angles ...
  100 angles
  reading dihedrals ...
  100 dihedrals

region fix1  block $(xlo) $(xlo+6)    INF INF INF INF units box
region fix1  block 0 $(xlo+6)    INF INF INF INF units box
region fix1  block 0 6    INF INF INF INF units box
region fix2  block $(xhi-6) $(xhi)    INF INF INF INF units box
region fix2  block 117.38787800000000061 $(xhi)    INF INF INF INF units box
region fix2  block 117.38787800000000061 123.38787800000000061    INF INF INF INF units box
region rqin  block $(xlo+6) $(xlo+30) INF INF INF INF units box
region rqin  block 6 $(xlo+30) INF INF INF INF units box
region rqin  block 6 30 INF INF INF INF units box
region rqout block $(xhi-30) $(xhi-6) INF INF INF INF units box
region rqout block 93.387878000000000611 $(xhi-6) INF INF INF INF units box
region rqout block 93.387878000000000611 117.38787800000000061 INF INF INF INF units box
region rfree block $(xlo+6) $(xhi-6) INF INF INF INF units box
region rfree block 6 $(xhi-6) INF INF INF INF units box
region rfree block 6 117.38787800000000061 INF INF INF INF units box

group qin region rqin
19 atoms in group qin
group qout region rqout
19 atoms in group qout
group gfree region rfree
90 atoms in group gfree

dump 1 all atom 1000000 vmd.atom
dump_modify 1 sort id
dump 2 all xyz 1000000 vmd.xyz
dump_modify 2 element  C

change_box all x scale 1.05 remap
  orthogonal box = (-3.0847 -50 -50) to (126.473 50 50)

fix 13 all box/relax x 0.0
minimize 1.0e-8 1.0e-8 10000 10000000
  update every 1 steps, delay 0 steps, check yes
Step Temp E_pair E_mol TotEng Press Volume
0            0   -4.1958033    161.23751     157.0417   -113.29197    1295572.7
Loop time of 0.0708472 on 32 procs for 482 steps with 100 atoms

Minimization stats:
  Stopping criterion = energy tolerance
  Energy initial, next-to-last, final =
  Force two-norm initial, final = 5647.53 0.0002917
  Force max component initial, final = 5641.67 6.38893e-05
  Final line search alpha, max atom move = 0.00241164 1.54078e-07
  Iterations, force evaluations = 482 488

unfix 13

restart 100000 rstrt_1 rstrt_2
### SETTINGS ###
neighbor    2.5 bin
neigh_modify	delay 0 every 50 check no

timestep 0.25
thermo		1000
thermo_modify flush yes

fix 		NPT all npt temp 0.1 0.1 25  x 0 0 2500
run 	1000000
Step Temp E_pair E_mol TotEng Press Volume
482            0   -5.3897013    21.003069    15.613368 2.3532673e-06    1233877.6
Averages over the last 501 of 1002 rows, steps 501000 to 1000482:
Temp E_pair E_mol TotEng Press Volume
0.100324 -5.38974 21.0327 15.6726 -0.000518526 1.23387e+06
Loop time of 57.8714 on 32 procs for 1000000 steps with 100 atoms

#run     1000
unfix         NPT

# ------------- Equilibration and thermalisation ----------------
velocity    gfree create 300.0 4928459
fix 		NVT gfree nvt temp 300.00 300.00 25
run 	1000000
Step Temp E_pair E_mol TotEng Press
1000482    269.72006   -5.3914909    21.037419     95.24037    3.0941779
Averages over the last 501 of 1002 rows, steps 1501000 to 2000482:
Temp E_pair E_mol TotEng Press
269.843 -5.23168 96.783 171.182 -12.1149
Loop time of 35.2853 on 32 procs for 1000000 steps with 100 atoms

#run     1000
unfix         NVT

# --------------- Equilibration in nve -----------------

fix 		NVE gfree nve
run 		100000
Step Temp E_pair E_mol TotEng Press
2000482    270.05688   -5.1990696    92.294473    166.78924      -15.675
Averages over the last 51 of 102 rows, steps 2051000 to 2100482:
Temp E_pair E_mol TotEng Press
264.617 -5.21044 93.9176 166.796 -13.6518
Loop time of 2.83953 on 32 procs for 100000 steps with 100 atoms

#run             1000

# --------------- Fix Heat -----------------

compute   ke all ke/atom
variable  temp atom c_ke/0.003
#fix       3 all ave/spatial 1 20000 20000 x lower 2.5 v_temp file tmp.profile units box
compute cc1 all chunk/atom bin/1d x lower 2.5 units box

fix 3 all ave/chunk 1 20000 20000 cc1 v_temp file tmp.profile #units box

fix 7 qin langevin 315.0 315.0 50.0 123456 tally yes
fix 8 qout langevin 285.0 285.0 50.0 123457 tally yes

log en_ex.log
