LAMMPS (7 Feb 2024 - Development - patch_7Feb2024-18-gc6a8f1fe58)
units real
atom_style full
bond_style harmonic
angle_style harmonic
dihedral_style opls
improper_style cvff
pair_style lj/cut 11.0
pair_modify mix geometric
special_bonds lj/coul 0 0 0.5
read_data polymer_builder.data
Reading data file ...
  orthogonal box = (-3.95 -5.02 -4.8) to (23 23.92 22.57)
  reading atoms ...
  200 atoms
Finding 1-2 1-3 1-4 neighbors ...
     0 = max # of 1-2 neighbors
     0 = max # of 1-3 neighbors
     0 = max # of 1-4 neighbors
     1 = max # of special neighbors
dump 1 all custom 1000 dump.custom.gz id xu yu zu
dump_modify 1 sort id
min_style fire
minimize 1.0e-6 1.0e-8 10000 100000
Generated 0 of 0 mixed pair_coeff terms from geometric mixing rule
  Parameters for fire:
    dmax  delaystep dtgrow dtshrink alpha0 alphashrink tmax tmin   integrator   halfstepback   abcfire
     0.1     20      1.1     0.5     0.25     0.99      10  0.02 eulerimplicit      yes          no
Step          Temp          E_pair         E_mol          TotEng         Press
0   0              21728.31       0              21728.31       292998.28
Loop time of 0.148735 on 1 procs for 653 steps with 200 atoms

Minimization stats:
  Stopping criterion = energy tolerance
  Energy initial, next-to-last, final =
  Force two-norm initial, final = 24402.509 0.31476225
  Force max component initial, final = 5059.5889 0.14952729
  Final line search alpha, max atom move = 0 0
  Iterations, force evaluations = 653 655

timestep 1
thermo_modify flush yes
thermo 1000
velocity all create 10 482748
fix 1a all temp/berendsen 10 10 100
fix 1b all nve
run 1000
Generated 0 of 0 mixed pair_coeff terms from geometric mixing rule
Step          Temp          E_pair         E_mol          TotEng         Press
653   10            -345.90544      0             -339.97362     -80.792096
Loop time of 0.124096 on 1 procs for 1000 steps with 200 atoms

unfix 1b
unfix 1a

fix 2a all press/berendsen iso 1 1 10000
fix 2b all temp/berendsen 10 298.15 100
fix 2c all nve
run 100000
Generated 0 of 0 mixed pair_coeff terms from geometric mixing rule
Step          Temp          E_pair         E_mol          TotEng         Press          Volume
1653   11.107376     -340.84116      0             -334.25247     -106.35889      21346.766
Averages over the last 51 of 102 rows, steps 52000 to 101653:
Temp E_pair E_mol TotEng Press Volume
226.097 -48.1868 0 85.9296 12.1229 802750
Loop time of 11.0372 on 1 procs for 100000 steps with 200 atoms

unfix 2c
unfix 2b
unfix 2a

variable xl equal "xhi - xlo"
variable yl equal "yhi - ylo"
variable zl equal "zhi - zlo"
fix xyzl all ave/time 1 1000 1000 v_xl v_yl v_zl file xyzl.data

fix 4a all press/berendsen iso 1 1 1000
fix 4b all temp/berendsen 298.15 298.15 100
fix 4c all nve
run 1000000
Generated 0 of 0 mixed pair_coeff terms from geometric mixing rule
Step          Temp          E_pair         E_mol          TotEng         Press          Volume
101653   298.02844     -3.0811386      0              173.70373      3.7875832      2086384.9
Averages over the last 501 of 1002 rows, steps 602000 to 1101653:
Temp E_pair E_mol TotEng Press Volume
298.158 -0.462774 0 176.399 0.999325 8.07682e+06
Loop time of 13.4876 on 1 procs for 1000000 steps with 200 atoms

unfix 4c
unfix 4b
unfix 4a

Final Boundary: xl = 194.911360934871, yl = 209.303702614277, zl = 197.948940585784
variable ave_xl python getXL
variable ave_yl python getYL
variable ave_zl python getZL
python getXL return v_ave_xl format f here """
def getXL():
    return getL(1)
def getYL():
    return getL(2)
def getZL():
    return getL(3)
def getL(n):
    import math
    with open('xyzl.data') as fh:
        vals = [float(x.split()[n]) for x in fh.readlines() if not x.startswith('#')]
        num = len(vals)
        sel = vals[math.floor(num*0.2):]
        return sum(sel)/len(sel)
 """
python getYL return v_ave_yl format f exists
python getZL return v_ave_zl format f exists
Averaged  xl = 194.89732375 yl = 209.28864875 zl = 197.93468
variable ave_xr equal "v_ave_xl / (xhi - xlo)"
variable ave_yr equal "v_ave_xl / (xhi - xlo)"
variable ave_zr equal "v_ave_xl / (xhi - xlo)"
change_box all x scale 0.999927981699969 y scale 0.999927981699969 z scale 0.999927981699969 remap
Changing box ...
  orthogonal box = (-87.923662 -95.201851 -90.08947) to (106.97366 114.10185 107.85947)
  orthogonal box = (-87.923662 -95.194314 -90.08947) to (106.97366 114.09431 107.85947)
  orthogonal box = (-87.923662 -95.194314 -90.082342) to (106.97366 114.09431 107.85234)
variable ave_xr delete
variable ave_yr delete
variable ave_zr delete
variable ave_xl delete
variable ave_yl delete
variable ave_zl delete
unfix xyzl
variable xl delete
variable yl delete
variable zl delete

fix 6a all temp/berendsen 298.15 298.15 100
fix 6b all nve
run 10000
Generated 0 of 0 mixed pair_coeff terms from geometric mixing rule
Step          Temp          E_pair         E_mol          TotEng         Press
1101653   298.45505     -1.0644991      0              175.97343      0.99341105
Averages over the last 6 of 12 rows, steps 1107000 to 1111653:
Temp E_pair E_mol TotEng Press
298.129 -0.42176 0 176.423 1.00275
Loop time of 0.0559203 on 1 procs for 10000 steps with 200 atoms

unfix 6b
unfix 6a

fix 7a all nve
run 1000000
Generated 0 of 0 mixed pair_coeff terms from geometric mixing rule
Step          Temp          E_pair         E_mol          TotEng         Press
1111653   298.21057     -0.56208271     0              176.33082      0.99881371
Averages over the last 501 of 1002 rows, steps 1612000 to 2111653:
Temp E_pair E_mol TotEng Press
297.977 -0.42995 0 176.325 0.999495
Loop time of 4.96627 on 1 procs for 1000000 steps with 200 atoms

unfix 7a
