LAMMPS (22 Aug 2018)
### INITIALIZATION ###
units        real
#processors 32 1 1

atom_style	 full
pair_style	 lj/class2/coul/cut 10.0 10.0
pair_modify  mix sixthpower
bond_style   morse
#angle_style  class2
angle_style quartic
dihedral_style multi/harmonic
#improper_style class2
read_data	./dataCrystal.lammps
  orthogonal box = (0 0 0) to (123.388 29.52 24.72)
  reading atoms ...
  4800 atoms
  scanning bonds ...
  scanning angles ...
  scanning dihedrals ...
  reading bonds ...
  4800 bonds
  reading angles ...
  4800 angles
  reading dihedrals ...
  4800 dihedrals

dump 1 all atom 1000000 vmd.atom
dump_modify 1 sort id
dump 2 all xyz 1000000 vmd.xyz
dump_modify 2 element  C

restart 100000 rstrt_1 rstrt_2
### SETTINGS ###
neighbor    2.5 bin
neigh_modify	delay 0 every 50 check no

timestep 0.25
thermo		1000
thermo_style custom step temp epair emol etotal press  lx ly lz
thermo_modify flush yes

change_box all x scale 1.05 remap
  orthogonal box = (-3.0847 0 0) to (126.473 29.52 24.72)

fix 13 all box/relax x 0.0 y 0.0 z 0.0
minimize 1.0e-8 1.0e-8 10000 10000000
  update every 1 steps, delay 0 steps, check yes
Step Temp E_pair E_mol TotEng Press Lx Ly Lz
0            0   -4919.0055    37031.317    32112.311   -148215.23    129.55727        29.52        24.72
Loop time of 5.56355 on 32 procs for 1865 steps with 4800 atoms

Minimization stats:
  Stopping criterion = energy tolerance
  Energy initial, next-to-last, final =
  Force two-norm initial, final = 388149 2255.93
  Force max component initial, final = 331855 1019.19
  Final line search alpha, max atom move = 2.9943e-12 3.05176e-09
  Iterations, force evaluations = 1865 1938

unfix 13

fix 		NPT all npt temp 0.1 0.1 25  x 0 0 2500  y 0 0 2500    z 0 0 2500
run 	1000000
Step Temp E_pair E_mol TotEng Press Lx Ly Lz
1865            0   -4271.8794    1822.4336   -2449.4458   -82.011171    122.44954    25.019696    21.272631
Averages over the last 501 of 1002 rows, steps 502000 to 1001865:
Temp E_pair E_mol TotEng Press Lx Ly Lz
0.0999896 -6121.83 1011.51 -5108.89 -0.138332 123.295 25.5342 24.0157
Loop time of 2192.9 on 32 procs for 1000000 steps with 4800 atoms

unfix         NPT

fix 		NPT all npt temp 0.1 300 25  x 0 0 250  y 0 0 250    z 0 0 250
run 	1000000
Step Temp E_pair E_mol TotEng Press Lx Ly Lz
1001865  0.098851269   -6122.1656     1011.517   -5109.2345    1.0719358    123.29501    25.545256    24.005257
Averages over the last 501 of 1002 rows, steps 1502000 to 2001865:
Temp E_pair E_mol TotEng Press Lx Ly Lz
223.132 -4537.79 8104.53 6758.61 -28685.1 100.65 31.7749 29.5147
Loop time of 2201.2 on 32 procs for 1000000 steps with 4800 atoms

unfix         NPT

fix 		NPT all npt temp 300 300 25  x 0 0 250  y 0 0 250    z 0 0 250
run 	4000000
Step Temp E_pair E_mol TotEng Press Lx Ly Lz
2001865    303.94682   -4430.9113    7484.3039    7401.3237    10702.817     97.42488    31.920024    30.045154
Averages over the last 2001 of 4002 rows, steps 4002000 to 6001865:
Temp E_pair E_mol TotEng Press Lx Ly Lz
299.961 -4372.73 6995.27 6913.46 9.75094 112.309 31.4433 26.972
Loop time of 7417.72 on 32 procs for 4000000 steps with 4800 atoms

unfix         NPT

region fix1  block $(xlo) $(xlo+6)    INF INF INF INF units box
region fix1  block 5.6791676220871920577 $(xlo+6)    INF INF INF INF units box
region fix1  block 5.6791676220871920577 11.679167622087192058    INF INF INF INF units box
region fix2  block $(xhi-6) $(xhi)    INF INF INF INF units box
region fix2  block 111.70871037771436818 $(xhi)    INF INF INF INF units box
region fix2  block 111.70871037771436818 117.70871037771436818    INF INF INF INF units box
region rqin  block $(xlo+6) $(xlo+30) INF INF INF INF units box
region rqin  block 11.679167622087192058 $(xlo+30) INF INF INF INF units box
region rqin  block 11.679167622087192058 35.679167622087192058 INF INF INF INF units box
region rqout block $(xhi-30) $(xhi-6) INF INF INF INF units box
region rqout block 87.708710377714368178 $(xhi-6) INF INF INF INF units box
region rqout block 87.708710377714368178 111.70871037771436818 INF INF INF INF units box
region rfree block $(xlo+6) $(xhi-6) INF INF INF INF units box
region rfree block 11.679167622087192058 $(xhi-6) INF INF INF INF units box
region rfree block 11.679167622087192058 111.70871037771436818 INF INF INF INF units box

group qin region rqin
1031 atoms in group qin
group qout region rqout
1020 atoms in group qout
group gfree region rfree
4289 atoms in group gfree

# ------------- Equilibration and thermalisation ----------------
#velocity    gfree create 300.0 4928459
fix 		NVT gfree nvt temp 300.00 300.00 25
run 	1000000
Step Temp E_pair E_mol TotEng Press Lx Ly Lz
6001865    297.60354   -4356.4457    6951.9764    6852.7218   -120.14465    112.02954    31.722074    26.970948
Averages over the last 501 of 1002 rows, steps 6502000 to 7001865:
Temp E_pair E_mol TotEng Press Lx Ly Lz
299.166 -4360.85 6968.42 6887.11 -344.807 112.03 31.7221 26.9709
Loop time of 1777.5 on 32 procs for 1000000 steps with 4800 atoms

unfix         NVT

# --------------- Equilibration in nve -----------------

fix 		NVE gfree nve
run 		1000000
Step Temp E_pair E_mol TotEng Press Lx Ly Lz
7001865    298.25037   -4358.2176    6946.4525    6854.6788    10.854352    112.02954    31.722074    26.970948
Averages over the last 501 of 1002 rows, steps 7502000 to 8001865:
Temp E_pair E_mol TotEng Press Lx Ly Lz
297.981 -4360.81 6953.16 6854.94 -364.275 112.03 31.7221 26.9709
Loop time of 1707.32 on 32 procs for 1000000 steps with 4800 atoms

# --------------- Fix Heat -----------------

compute   ke all ke/atom
variable  temp atom c_ke/0.003
#fix       3 all ave/spatial 1 20000 20000 x lower 2.5 v_temp file tmp.profile units box
compute cc1 all chunk/atom bin/1d x lower 2.5 units box
fix 3 all ave/chunk 1 20000 20000 cc1 v_temp file temp.profile

fix 7 qin langevin 315.0 315.0 50.0 123456 tally yes
fix 8 qout langevin 285.0 285.0 50.0 123457 tally yes

log en_ex.log
