LAMMPS (7 Feb 2024 - Development - patch_7Feb2024-18-gc6a8f1fe58)
units real
atom_style full
bond_style harmonic
angle_style harmonic
dihedral_style opls
improper_style cvff
pair_style lj/cut 11.0
pair_modify mix geometric
special_bonds lj/coul 0 0 0.5
read_data polymer_builder.data
Reading data file ...
  orthogonal box = (-2.31 -2.78 -1.65) to (29.2 29.31 30.34)
  reading atoms ...
  400 atoms
  scanning bonds ...
  reading bonds ...
  200 bonds
Finding 1-2 1-3 1-4 neighbors ...
     1 = max # of 1-2 neighbors
     0 = max # of 1-3 neighbors
     0 = max # of 1-4 neighbors
     1 = max # of special neighbors
dump 1 all custom 1000 dump.custom.gz id xu yu zu
dump_modify 1 sort id
min_style fire
minimize 1.0e-6 1.0e-8 10000 100000
Generated 0 of 0 mixed pair_coeff terms from geometric mixing rule
  Parameters for fire:
    dmax  delaystep dtgrow dtshrink alpha0 alphashrink tmax tmin   integrator   halfstepback   abcfire
     0.1     20      1.1     0.5     0.25     0.99      10  0.02 eulerimplicit      yes          no
Step          Temp          E_pair         E_mol          TotEng         Press
0   0              21310.638      0.0083913255   21310.647      191355.78
Loop time of 4.24826 on 1 procs for 8798 steps with 400 atoms

Minimization stats:
  Stopping criterion = energy tolerance
  Energy initial, next-to-last, final =
  Force two-norm initial, final = 21613.357 0.91663178
  Force max component initial, final = 4815.4743 0.16944802
  Final line search alpha, max atom move = 0 0
  Iterations, force evaluations = 8798 9260

timestep 1
thermo_modify flush yes
thermo 1000
velocity all create 10 482748
fix 1a all temp/berendsen 10 10 100
fix 1b all nve
run 5000
Generated 0 of 0 mixed pair_coeff terms from geometric mixing rule
Step          Temp          E_pair         E_mol          TotEng         Press
8798   10            -639.58571      0.10260346    -627.58967     -91.261968
Loop time of 1.65676 on 1 procs for 5000 steps with 400 atoms

unfix 1b
unfix 1a

fix 2a all press/berendsen iso 1 1 10000
fix 2b all temp/berendsen 10 273.15 100
fix 2c all nve
run 500000
Generated 0 of 0 mixed pair_coeff terms from geometric mixing rule
Step          Temp          E_pair         E_mol          TotEng         Press          Volume
13798   10.676483     -666.90949      0.46013168    -653.75136     -102.98953      32346.877
Averages over the last 251 of 502 rows, steps 264000 to 513798:
Temp E_pair E_mol TotEng Press Volume
207.467 -335.681 1.9362 -86.9948 2.63563 590320
Loop time of 208.533 on 1 procs for 500000 steps with 400 atoms

unfix 2c
unfix 2b
unfix 2a

variable xl equal "xhi - xlo"
variable yl equal "yhi - ylo"
variable zl equal "zhi - zlo"
fix xyzl all ave/time 1 1000 1000 v_xl v_yl v_zl file xyzl.data

fix 4a all press/berendsen iso 1 1 1000
fix 4b all temp/berendsen 273.15 273.15 100
fix 4c all nve
run 5000000
Generated 0 of 0 mixed pair_coeff terms from geometric mixing rule
Step          Temp          E_pair         E_mol          TotEng         Press          Volume
513798   273.74751     -3.1838093      4.8260478      327.22198      2.0929646      3339034.4
Averages over the last 2501 of 5002 rows, steps 3014000 to 5513798:
Temp E_pair E_mol TotEng Press Volume
273.152 -1.41535 2.20609 325.662 0.999583 8.8148e+06
Loop time of 109.917 on 1 procs for 5000000 steps with 400 atoms

unfix 4c
unfix 4b
unfix 4a

Final Boundary: xl = 205.473955572286, yl = 209.256084872002, zl = 208.603993613414
variable ave_xl python getXL
variable ave_yl python getYL
variable ave_zl python getZL
python getXL return v_ave_xl format f here """
def getXL():
    return getL(1)
def getYL():
    return getL(2)
def getZL():
    return getL(3)
def getL(n):
    import math
    with open('xyzl.data') as fh:
        vals = [float(x.split()[n]) for x in fh.readlines() if not x.startswith('#')]
        num = len(vals)
        sel = vals[math.floor(num*0.2):]
        return sum(sel)/len(sel)
 """
python getYL return v_ave_yl format f exists
python getZL return v_ave_zl format f exists
Averaged  xl = 203.76848125 yl = 207.51922075 zl = 206.8725285
variable ave_xr equal "v_ave_xl / (xhi - xlo)"
variable ave_yr equal "v_ave_xl / (xhi - xlo)"
variable ave_zr equal "v_ave_xl / (xhi - xlo)"
change_box all x scale 0.991699802938355 y scale 0.991699802938355 z scale 0.991699802938355 remap
Changing box ...
  orthogonal box = (-88.439241 -91.363042 -89.956997) to (115.32924 117.89304 118.647)
  orthogonal box = (-88.439241 -90.494609 -89.956997) to (115.32924 117.02461 118.647)
  orthogonal box = (-88.439241 -90.494609 -89.09127) to (115.32924 117.02461 117.78127)
variable ave_xr delete
variable ave_yr delete
variable ave_zr delete
variable ave_xl delete
variable ave_yl delete
variable ave_zl delete
unfix xyzl
variable xl delete
variable yl delete
variable zl delete

fix 6a all temp/berendsen 273.15 273.15 100
fix 6b all nve
run 50000
Generated 0 of 0 mixed pair_coeff terms from geometric mixing rule
Step          Temp          E_pair         E_mol          TotEng         Press
5513798   273.45264     -4.4614342      7.8616166      328.62922      6.2354238
Averages over the last 26 of 52 rows, steps 5539000 to 5563798:
Temp E_pair E_mol TotEng Press
273.113 -1.93213 5.46196 328.355 1.00233
Loop time of 0.599835 on 1 procs for 50000 steps with 400 atoms

unfix 6b
unfix 6a

fix 7a all nve
run 1000000
Generated 0 of 0 mixed pair_coeff terms from geometric mixing rule
Step          Temp          E_pair         E_mol          TotEng         Press
5563798   273.16372     -1.4314952      5.4705756      328.9245       1.4610666
Averages over the last 501 of 1002 rows, steps 6064000 to 6563798:
Temp E_pair E_mol TotEng Press
273.043 -1.43457 5.62275 328.93 0.93449
Loop time of 11.1641 on 1 procs for 1000000 steps with 400 atoms

unfix 7a
