LAMMPS (7 Feb 2024 - Development - patch_7Feb2024-18-gc6a8f1fe58)
units real
atom_style full
bond_style harmonic
angle_style harmonic
dihedral_style opls
improper_style cvff
pair_style lj/cut 11.0
pair_modify mix geometric
special_bonds lj/coul 0 0 0.5
read_data polymer_builder.data
Reading data file ...
  orthogonal box = (-4.39 -4.19 -5.33) to (29.15 28.83 28.62)
  reading atoms ...
  400 atoms
  scanning bonds ...
  reading bonds ...
  200 bonds
Finding 1-2 1-3 1-4 neighbors ...
     1 = max # of 1-2 neighbors
     0 = max # of 1-3 neighbors
     0 = max # of 1-4 neighbors
     1 = max # of special neighbors
dump 1 all custom 1000 dump.custom.gz id xu yu zu
dump_modify 1 sort id
min_style fire
minimize 1.0e-6 1.0e-8 10000 100000
Generated 0 of 0 mixed pair_coeff terms from geometric mixing rule
  Parameters for fire:
    dmax  delaystep dtgrow dtshrink alpha0 alphashrink tmax tmin   integrator   halfstepback   abcfire
     0.1     20      1.1     0.5     0.25     0.99      10  0.02 eulerimplicit      yes          no
Step          Temp          E_pair         E_mol          TotEng         Press
0   0              23763.216      0.012652654    23763.228      183190.61
Loop time of 3.6619 on 1 procs for 7821 steps with 400 atoms

Minimization stats:
  Stopping criterion = energy tolerance
  Energy initial, next-to-last, final =
  Force two-norm initial, final = 25047.103 0.80817929
  Force max component initial, final = 4135.3896 0.17622505
  Final line search alpha, max atom move = 0 0
  Iterations, force evaluations = 7821 8232

timestep 1
thermo_modify flush yes
thermo 1000
velocity all create 10 482748
fix 1a all temp/berendsen 10 10 100
fix 1b all nve
run 1000
Generated 0 of 0 mixed pair_coeff terms from geometric mixing rule
Step          Temp          E_pair         E_mol          TotEng         Press
7821   10            -631.87757      0.11609718    -619.86804     -12.195872
Loop time of 0.3176 on 1 procs for 1000 steps with 400 atoms

unfix 1b
unfix 1a

fix 2a all press/berendsen iso 1 1 10000
fix 2b all temp/berendsen 10 300 100
fix 2c all nve
run 10000
Generated 0 of 0 mixed pair_coeff terms from geometric mixing rule
Step          Temp          E_pair         E_mol          TotEng         Press          Volume
8821   10.695159     -628.57998      1.3904907     -614.46928      69.860764      37599.313
Averages over the last 6 of 12 rows, steps 14000 to 18821:
Temp E_pair E_mol TotEng Press Volume
226.721 -344.408 15.2239 -59.5349 13.2792 103113
Loop time of 2.67604 on 1 procs for 10000 steps with 400 atoms

unfix 2c
unfix 2b
unfix 2a

variable xl equal "xhi - xlo"
variable yl equal "yhi - ylo"
variable zl equal "zhi - zlo"
fix xyzl all ave/time 1 1000 1000 v_xl v_yl v_zl file xyzl.data

fix 4a all press/berendsen iso 1 1 1000
fix 4b all temp/berendsen 300 300 100
fix 4c all nve
run 1000000
Generated 0 of 0 mixed pair_coeff terms from geometric mixing rule
Step          Temp          E_pair         E_mol          TotEng         Press          Volume
18821   297.96979     -215.97615      19.545496      157.95769      12.629565      147318.35
Averages over the last 501 of 1002 rows, steps 519000 to 1018821:
Temp E_pair E_mol TotEng Press Volume
299.99 -1.20778 23.1079 378.691 1.00166 9.28921e+06
Loop time of 24.1112 on 1 procs for 1000000 steps with 400 atoms

unfix 4c
unfix 4b
unfix 4a

Final Boundary: xl = 210.431718348153, yl = 207.169211086923, zl = 213.004079842566
variable ave_xl python getXL
variable ave_yl python getYL
variable ave_zl python getZL
python getXL return v_ave_xl format f here """
def getXL():
    return getL(1)
def getYL():
    return getL(2)
def getZL():
    return getL(3)
def getL(n):
    import math
    with open('xyzl.data') as fh:
        vals = [float(x.split()[n]) for x in fh.readlines() if not x.startswith('#')]
        num = len(vals)
        sel = vals[math.floor(num*0.2):]
        return sum(sel)/len(sel)
 """
python getYL return v_ave_yl format f exists
python getZL return v_ave_zl format f exists
Averaged  xl = 207.78536125 yl = 204.56386625 zl = 210.32533
variable ave_xr equal "v_ave_xl / (xhi - xlo)"
variable ave_yr equal "v_ave_xl / (xhi - xlo)"
variable ave_zr equal "v_ave_xl / (xhi - xlo)"
change_box all x scale 0.98742415297976 y scale 0.98742415297976 z scale 0.98742415297976 remap
Changing box ...
  orthogonal box = (-91.512681 -91.264606 -94.85704) to (116.27268 115.90461 118.14704)
  orthogonal box = (-91.512681 -89.961941 -94.85704) to (116.27268 114.60194 118.14704)
  orthogonal box = (-91.512681 -89.961941 -93.517687) to (116.27268 114.60194 116.80769)
variable ave_xr delete
variable ave_yr delete
variable ave_zr delete
variable ave_xl delete
variable ave_yl delete
variable ave_zl delete
unfix xyzl
variable xl delete
variable yl delete
variable zl delete

fix 6a all temp/berendsen 300 300 100
fix 6b all nve
run 10000
Generated 0 of 0 mixed pair_coeff terms from geometric mixing rule
Step          Temp          E_pair         E_mol          TotEng         Press
1018821   300.03128     -0.89986908     35.053855      390.99415      8.7841859
Averages over the last 6 of 12 rows, steps 1024000 to 1028821:
Temp E_pair E_mol TotEng Press
300.467 -1.27162 27.3506 383.437 1.00187
Loop time of 0.128953 on 1 procs for 10000 steps with 400 atoms

unfix 6b
unfix 6a

fix 7a all nve
run 1000000
Generated 0 of 0 mixed pair_coeff terms from geometric mixing rule
Step          Temp          E_pair         E_mol          TotEng         Press
1028821   301.51356     -0.66959147     25.958476      383.892        0.13421183
Averages over the last 501 of 1002 rows, steps 1529000 to 2028821:
Temp E_pair E_mol TotEng Press
300.719 -1.30102 27.5432 383.901 1.00075
Loop time of 11.7181 on 1 procs for 1000000 steps with 400 atoms

unfix 7a
